examples/feeders/18_SE001_1/009_segmentoRamalBT.dss
New Line.RBT_1510540 phases=2 bus1=BT236811.1.4 bus2=UC1510540.1.4 linecode=50_2 length=0.015 units=km
New Line.RBT_1510547 phases=2 bus1=ET15_1107.1.4 bus2=UC1510547.1.4 linecode=105_2 length=0.016 units=km
New Line.RBT_1510546 phases=2 bus1=ET15_1108.1.4 bus2=UC1510546.1.4 linecode=50_2 length=0.02914 units=km
New Line.RBT_2910519 phases=2 bus1=BT298041.1.4 bus2=UC2910519.1.4 linecode=50_2 length=0.022 units=km
New Line.RBT_2910500 phases=3 bus1=ET15_1418.1.2.4 bus2=UC2910500.1.2.4 linecode=83_3 length=0.02443 units=km
New Line.RBT_1510543 phases=3 bus1=ET15_1682.1.2.4 bus2=UC1510543.1.2.4 linecode=83_3 length=0.0144 units=km
New Line.RBT_1510544 phases=3 bus1=ET15_1828.1.2.4 bus2=UC1510544.1.2.4 linecode=83_3 length=0.01448 units=km
New Line.RBT_1509722 phases=2 bus1=ET15_1844.1.4 bus2=UC1509722.1.4 linecode=50_2 length=0.01966 units=km
New Line.RBT_1520984 phases=2 bus1=BT302251.1.4 bus2=UC1520984.1.4 linecode=50_2 length=0.025 units=km
New Line.RBT_1516384 phases=2 bus1=BT341811.2.4 bus2=UC1516384.2.4 linecode=50_2 length=0.028 units=km
New Line.RBT_1517507 phases=4 bus1=ET15_1927.1.2.3.4 bus2=UC1517507.1.2.3.4 linecode=51_4 length=0.03 units=km
New Line.RBT_1519249 phases=4 bus1=BT302241.1.2.3.4 bus2=UC1519249.1.2.3.4 linecode=51_4 length=0.018 units=km
New Line.RBT_1520725 phases=2 bus1=BT302251.2.4 bus2=UC1520725.2.4 linecode=50_2 length=0.02 units=km
New Line.RBT_533186 phases=3 bus1=BT341811.1.2.4 bus2=UC533186.1.2.4 linecode=83_3 length=0.01694 units=km
New Line.RBT_1520971 phases=2 bus1=ET15_2636.1.4 bus2=UC1520971.1.4 linecode=50_2 length=0.01252 units=km
New Line.RBT_1510537 phases=2 bus1=BT310751.1.4 bus2=UC1510537.1.4 linecode=50_2 length=0.023 units=km
New Line.RBT_1510538 phases=4 bus1=ET15_3040.1.2.3.4 bus2=UC1510538.1.2.3.4 linecode=51_4 length=0.01945 units=km
New Line.RBT_1527452 phases=4 bus1=ET15_3040.1.2.3.4 bus2=UC1527452.1.2.3.4 linecode=51_4 length=0.0143 units=km
New Line.RBT_2910521 phases=2 bus1=ET15_3260.2.4 bus2=UC2910521.2.4 linecode=108_2 length=0.01642 units=km
New Line.RBT_1522454 phases=2 bus1=BT233351.2.4 bus2=UC1522454.2.4 linecode=50_2 length=0.023 units=km
New Line.RBT_1510551 phases=4 bus1=BT233351.1.2.3.4 bus2=UC1510551.1.2.3.4 linecode=51_4 length=0.021 units=km
New Line.RBT_1530153 phases=3 bus1=BT658251.1.2.4 bus2=UC1530153.1.2.4 linecode=83_3 length=0.015 units=km
New Line.RBT_1530154 phases=2 bus1=ET15_4154.1.4 bus2=UC1530154.1.4 linecode=50_2 length=0.00429 units=km
New Line.RBT_1533617 phases=2 bus1=ET15_5184.1.4 bus2=UC1533617.1.4 linecode=50_2 length=0.00555 units=km
New Line.RBT_2937923 phases=2 bus1=ET15_6237.2.4 bus2=UC2937923.2.4 linecode=105_2 length=0.007 units=km
New Line.RBT_1510539 phases=3 bus1=BT298991.1.2.4 bus2=UC1510539.1.2.4 linecode=83_3 length=0.009 units=km
New Line.RBT_1538552 phases=3 bus1=ET15_804.1.2.4 bus2=UC1538552.1.2.4 linecode=83_3 length=0.005 units=km
New Line.RBT_1510550 phases=3 bus1=BT233281.1.2.4 bus2=UC1510550.1.2.4 linecode=83_3 length=0.014 units=km
New Line.RBT_1704961 phases=4 bus1=BT230491.1.2.3.4 bus2=UC1704961.1.2.3.4 linecode=51_4 length=0.01426 units=km
New Line.RBT_1704962 phases=4 bus1=BT230501.1.2.3.4 bus2=UC1704962.1.2.3.4 linecode=51_4 length=0.03 units=km
New Line.RBT_1724637 phases=4 bus1=BT556311.1.2.3.4 bus2=UC1724637.1.2.3.4 linecode=51_4 length=0.01094 units=km
New Line.RBT_1730737 phases=2 bus1=BT230491.2.4 bus2=UC1730737.2.4 linecode=50_2 length=0.012 units=km
New Line.RBT_1736495 phases=4 bus1=BT772861.1.2.3.4 bus2=UC1736495.1.2.3.4 linecode=123_4 length=0.015 units=km
New Line.RBT_1735046 phases=2 bus1=BT245231.1.4 bus2=UC1735046.1.4 linecode=50_2 length=0.03 units=km
New Line.RBT_1705070 phases=2 bus1=BT264301.1.4 bus2=UC1705070.1.4 linecode=50_2 length=0.028 units=km
New Line.RBT_1722092 phases=2 bus1=BT245231.1.4 bus2=UC1722092.1.4 linecode=50_2 length=0.014 units=km
New Line.RBT_1704824 phases=2 bus1=BT183311.2.4 bus2=UC1704824.2.4 linecode=50_2 length=0.019 units=km
New Line.RBT_1704950 phases=2 bus1=ET17_1582.2.4 bus2=UC1704950.2.4 linecode=50_2 length=0.023 units=km
New Line.RBT_1723966 phases=2 bus1=BT287521.1.4 bus2=UC1723966.1.4 linecode=50_2 length=0.03 units=km
New Line.RBT_1705000 phases=2 bus1=BT349371.2.4 bus2=UC1705000.2.4 linecode=50_2 length=0.011 units=km
New Line.RBT_1727795 phases=2 bus1=BT563951.1.4 bus2=UC1727795.1.4 linecode=105_2 length=0.017 units=km
New Line.RBT_1727815 phases=2 bus1=BT215211.1.4 bus2=UC1727815.1.4 linecode=105_2 length=0.013 units=km
New Line.RBT_1704966 phases=4 bus1=BT300931.1.2.3.4 bus2=UC1704966.1.2.3.4 linecode=51_4 length=0.01 units=km
New Line.RBT_1709707 phases=2 bus1=BT283691.1.4 bus2=UC1709707.1.4 linecode=108_2 length=0.007 units=km
New Line.RBT_1704954 phases=2 bus1=BT283681.2.4 bus2=UC1704954.2.4 linecode=50_2 length=0.03 units=km
New Line.RBT_1704955 phases=2 bus1=BT283671.1.4 bus2=UC1704955.1.4 linecode=108_2 length=0.015 units=km
New Line.RBT_1704956 phases=4 bus1=BT283651.1.2.3.4 bus2=UC1704956.1.2.3.4 linecode=51_4 length=0.007 units=km
New Line.RBT_1737257 phases=4 bus1=BT283691.1.2.3.4 bus2=UC1737257.1.2.3.4 linecode=51_4 length=0.03 units=km
New Line.RBT_1738052 phases=4 bus1=BT802331.1.2.3.4 bus2=UC1738052.1.2.3.4 linecode=51_4 length=0.018 units=km
New Line.RBT_1704858 phases=3 bus1=ET17_1709.1.2.4 bus2=UC1704858.1.2.4 linecode=83_3 length=0.017 units=km
New Line.RBT_1824265 phases=3 bus1=ET17_1754.1.2.4 bus2=UC1824265.1.2.4 linecode=110_3 length=0.02309 units=km
New Line.RBT_1704901 phases=3 bus1=ET17_2080.1.2.4 bus2=UC1704901.1.2.4 linecode=83_3 length=0.013 units=km
New Line.RBT_1719231 phases=2 bus1=BT770431.1.4 bus2=UC1719231.1.4 linecode=50_2 length=0.008 units=km
New Line.RBT_1725094 phases=2 bus1=ET17_2080.2.4 bus2=UC1725094.2.4 linecode=50_2 length=0.03 units=km
New Line.RBT_1728117 phases=2 bus1=BT327311.2.4 bus2=UC1728117.2.4 linecode=50_2 length=0.019 units=km
New Line.RBT_1727265 phases=2 bus1=BT379951.1.4 bus2=UC1727265.1.4 linecode=50_2 length=0.01 units=km
New Line.RBT_1729950 phases=2 bus1=BT245142.1.4 bus2=UC1729950.1.4 linecode=50_2 length=0.024 units=km
New Line.RBT_1704819 phases=2 bus1=ET17_2107.2.4 bus2=UC1704819.2.4 linecode=105_2 length=0.016 units=km
New Line.RBT_1704821 phases=2 bus1=BT245151.1.4 bus2=UC1704821.1.4 linecode=50_2 length=0.022 units=km
New Line.RBT_1704822 phases=2 bus1=BT245201.1.4 bus2=UC1704822.1.4 linecode=50_2 length=0.03 units=km
New Line.RBT_1704823 phases=2 bus1=BT245211.2.4 bus2=UC1704823.2.4 linecode=50_2 length=0.03 units=km
New Line.RBT_1736703 phases=2 bus1=BT245191.2.4 bus2=UC1736703.2.4 linecode=105_2 length=0.03 units=km
New Line.RBT_1723982 phases=4 bus1=ET17_2127.1.2.3.4 bus2=UC1723982.1.2.3.4 linecode=51_4 length=0.00929 units=km
New Line.RBT_1704963 phases=2 bus1=ET17_2137.1.4 bus2=UC1704963.1.4 linecode=108_2 length=0.02614 units=km
New Line.RBT_1704964 phases=2 bus1=BT164901.1.4 bus2=UC1704964.1.4 linecode=50_2 length=0.02 units=km
New Line.RBT_1739257 phases=2 bus1=BT463941.1.4 bus2=UC1739257.1.4 linecode=105_2 length=0.022 units=km
New Line.RBT_1824916 phases=2 bus1=BT151481.2.4 bus2=UC1824916.2.4 linecode=50_2 length=0.019 units=km
New Line.RBT_1704837 phases=4 bus1=BT183381.1.2.3.4 bus2=UC1704837.1.2.3.4 linecode=109_4 length=0.01 units=km
New Line.RBT_1719734 phases=2 bus1=BT662171.2.4 bus2=UC1719734.2.4 linecode=105_2 length=0.029 units=km
New Line.RBT_1720178 phases=2 bus1=ET17_23.2.4 bus2=UC1720178.2.4 linecode=50_2 length=0.03 units=km
New Line.RBT_1716255 phases=2 bus1=BT662171.1.4 bus2=UC1716255.1.4 linecode=50_2 length=0.03 units=km
New Line.RBT_1729972 phases=2 bus1=BT662131.3.4 bus2=UC1729972.3.4 linecode=50_2 length=0.03 units=km
New Line.RBT_1727290 phases=2 bus1=BT662131.3.4 bus2=UC1727290.3.4 linecode=50_2 length=0.03 units=km
New Line.RBT_1736961 phases=2 bus1=BT662131.3.4 bus2=UC1736961.3.4 linecode=105_2 length=0.03 units=km
New Line.RBT_1739086 phases=2 bus1=BT662161.3.4 bus2=UC1739086.3.4 linecode=105_2 length=0.013 units=km
New Line.RBT_1735731 phases=2 bus1=BT662161.1.4 bus2=UC1735731.1.4 linecode=108_2 length=0.02 units=km
New Line.RBT_1731185 phases=2 bus1=BT662171.2.4 bus2=UC1731185.2.4 linecode=50_2 length=0.02788 units=km
New Line.RBT_1732067 phases=2 bus1=BT662141.2.4 bus2=UC1732067.2.4 linecode=105_2 length=0.03 units=km
New Line.RBT_1735221 phases=4 bus1=BT747221.1.2.3.4 bus2=UC1735221.1.2.3.4 linecode=51_4 length=0.015 units=km
New Line.RBT_1725098 phases=4 bus1=BT300851.1.2.3.4 bus2=UC1725098.1.2.3.4 linecode=51_4 length=0.001 units=km
New Line.RBT_1716380 phases=4 bus1=BT300851.1.2.3.4 bus2=UC1716380.1.2.3.4 linecode=51_4 length=0.00205 units=km
New Line.RBT_1719286 phases=2 bus1=BT359851.1.4 bus2=UC1719286.1.4 linecode=50_2 length=0.019 units=km
New Line.RBT_1723258 phases=2 bus1=BT300851.1.4 bus2=UC1723258.1.4 linecode=105_2 length=0.03 units=km
New Line.RBT_1704957 phases=2 bus1=ET17_2397.3.4 bus2=UC1704957.3.4 linecode=105_2 length=0.017 units=km
New Line.RBT_1704958 phases=4 bus1=BT300871.1.2.3.4 bus2=UC1704958.1.2.3.4 linecode=51_4 length=0.01 units=km
New Line.RBT_1704959 phases=2 bus1=BT359841.2.4 bus2=UC1704959.2.4 linecode=50_2 length=0.009 units=km
New Line.RBT_1704827 phases=2 bus1=BT245101.1.4 bus2=UC1704827.1.4 linecode=108_2 length=0.017 units=km
New Line.RBT_1704828 phases=2 bus1=BT245111.2.4 bus2=UC1704828.2.4 linecode=50_2 length=0.016 units=km
New Line.RBT_1704814 phases=3 bus1=BT245071.1.2.4 bus2=UC1704814.1.2.4 linecode=83_3 length=0.021 units=km
New Line.RBT_1728300 phases=2 bus1=BT245081.2.4 bus2=UC1728300.2.4 linecode=50_2 length=0.03 units=km
New Line.RBT_1732806 phases=4 bus1=BT245051.1.2.3.4 bus2=UC1732806.1.2.3.4 linecode=51_4 length=0.02557 units=km
New Line.RBT_1738013 phases=4 bus1=ET17_24.1.2.3.4 bus2=UC1738013.1.2.3.4 linecode=51_4 length=0.005 units=km
New Line.RBT_1738805 phases=4 bus1=BT814151.1.2.3.4 bus2=UC1738805.1.2.3.4 linecode=51_4 length=0.024 units=km
New Line.RBT_1729351 phases=2 bus1=BT244211.1.4 bus2=UC1729351.1.4 linecode=50_2 length=0.025 units=km
New Line.RBT_1729694 phases=4 bus1=BT244191.1.2.3.4 bus2=UC1729694.1.2.3.4 linecode=51_4 length=0.03 units=km
New Line.RBT_1704805 phases=2 bus1=BT244151.1.4 bus2=UC1704805.1.4 linecode=50_2 length=0.01168 units=km
New Line.RBT_1704806 phases=2 bus1=BT655541.1.4 bus2=UC1704806.1.4 linecode=50_2 length=0.02059 units=km
New Line.RBT_1704807 phases=4 bus1=BT637691.1.2.3.4 bus2=UC1704807.1.2.3.4 linecode=51_4 length=0.005 units=km
New Line.RBT_1730742 phases=2 bus1=ET17_2424.1.4 bus2=UC1730742.1.4 linecode=107_2 length=0.01 units=km
New Line.RBT_1719293 phases=2 bus1=BT330312.2.4 bus2=UC1719293.2.4 linecode=108_2 length=0.012 units=km
New Line.RBT_1704949 phases=2 bus1=BT628231.2.4 bus2=UC1704949.2.4 linecode=50_2 length=0.017 units=km
New Line.RBT_1737904 phases=2 bus1=BT674721.2.4 bus2=UC1737904.2.4 linecode=105_2 length=0.014 units=km
New Line.RBT_1704802 phases=2 bus1=BT243391.2.4 bus2=UC1704802.2.4 linecode=50_2 length=0.023 units=km
New Line.RBT_1704804 phases=2 bus1=ET17_25.1.4 bus2=UC1704804.1.4 linecode=50_2 length=0.01708 units=km
New Line.RBT_1799991 phases=2 bus1=BT245161.1.4 bus2=UC1799991.1.4 linecode=50_2 length=0.009 units=km
New Line.RBT_1807859 phases=3 bus1=ET17_2500.1.2.4 bus2=UC1807859.1.2.4 linecode=110_3 length=0.028 units=km
New Line.RBT_1820192 phases=2 bus1=BT368581.1.4 bus2=UC1820192.1.4 linecode=50_2 length=0.003 units=km
New Line.RBT_1838847 phases=2 bus1=BT337251.1.4 bus2=UC1838847.1.4 linecode=50_2 length=0.019 units=km
New Line.RBT_1821160 phases=2 bus1=ET17_2640.1.4 bus2=UC1821160.1.4 linecode=50_2 length=0.02191 units=km
New Line.RBT_1822655 phases=2 bus1=BT587321.2.4 bus2=UC1822655.2.4 linecode=50_2 length=0.017 units=km
New Line.RBT_1727701 phases=2 bus1=BT558851.2.4 bus2=UC1727701.2.4 linecode=50_2 length=0.016 units=km
New Line.RBT_1726172 phases=2 bus1=BT338891.2.4 bus2=UC1726172.2.4 linecode=108_2 length=0.019 units=km
New Line.RBT_1724592 phases=4 bus1=ET17_3247.1.2.3.4 bus2=UC1724592.1.2.3.4 linecode=51_4 length=0.00354 units=km
New Line.RBT_1732560 phases=2 bus1=BT655431.1.4 bus2=UC1732560.1.4 linecode=50_2 length=0.03 units=km
New Line.RBT_1818130 phases=2 bus1=BT602111.1.4 bus2=UC1818130.1.4 linecode=50_2 length=0.015 units=km
New Line.RBT_1734901 phases=4 bus1=BT693851.1.2.3.4 bus2=UC1734901.1.2.3.4 linecode=51_4 length=0.015 units=km
New Line.RBT_1726284 phases=2 bus1=BT583931.1.4 bus2=UC1726284.1.4 linecode=50_2 length=0.009 units=km
New Line.RBT_1730284 phases=4 bus1=BT244311.1.2.3.4 bus2=UC1730284.1.2.3.4 linecode=51_4 length=0.02419 units=km
New Line.RBT_1728587 phases=2 bus1=BT244311.1.4 bus2=UC1728587.1.4 linecode=108_2 length=0.03 units=km
New Line.RBT_1727031 phases=3 bus1=ET17_3600.1.2.4 bus2=UC1727031.1.2.4 linecode=83_3 length=0.01186 units=km
New Line.RBT_1729599 phases=2 bus1=BT478801.2.4 bus2=UC1729599.2.4 linecode=50_2 length=0.018 units=km
New Line.RBT_1737762 phases=2 bus1=ET17_3717.1.4 bus2=UC1737762.1.4 linecode=105_2 length=0.014 units=km
New Line.RBT_1837909 phases=2 bus1=BT802611.1.4 bus2=UC1837909.1.4 linecode=105_2 length=0.015 units=km
New Line.RBT_1739018 phases=4 bus1=BT297881.1.2.3.4 bus2=UC1739018.1.2.3.4 linecode=51_4 length=0.03 units=km
New Line.RBT_1734094 phases=2 bus1=ET17_3779.2.4 bus2=UC1734094.2.4 linecode=50_2 length=0.01106 units=km
New Line.RBT_1723902 phases=2 bus1=BT744071.1.4 bus2=UC1723902.1.4 linecode=50_2 length=0.02078 units=km
New Line.RBT_1704846 phases=2 bus1=BT297881.1.4 bus2=UC1704846.1.4 linecode=50_2 length=0.00842 units=km
New Line.RBT_1720198 phases=4 bus1=BT183431.1.2.3.4 bus2=UC1720198.1.2.3.4 linecode=51_4 length=0.023 units=km
New Line.RBT_1731102 phases=2 bus1=BT183421.1.4 bus2=UC1731102.1.4 linecode=50_2 length=0.03 units=km
New Line.RBT_1729315 phases=2 bus1=BT183431.2.4 bus2=UC1729315.2.4 linecode=108_2 length=0.024 units=km
New Line.RBT_1725092 phases=4 bus1=BT632321.1.2.3.4 bus2=UC1725092.1.2.3.4 linecode=51_4 length=0.02193 units=km
New Line.RBT_1704832 phases=2 bus1=BT183431.3.4 bus2=UC1704832.3.4 linecode=108_2 length=0.03 units=km
New Line.RBT_1704833 phases=4 bus1=BT183471.1.2.3.4 bus2=UC1704833.1.2.3.4 linecode=109_4 length=0.018 units=km
New Line.RBT_1704834 phases=4 bus1=BT183461.1.2.3.4 bus2=UC1704834.1.2.3.4 linecode=51_4 length=0.012 units=km
New Line.RBT_1704835 phases=4 bus1=BT183481.1.2.3.4 bus2=UC1704835.1.2.3.4 linecode=51_4 length=0.03 units=km
New Line.RBT_1733692 phases=2 bus1=BT183471.3.4 bus2=UC1733692.3.4 linecode=50_2 length=0.02243 units=km
New Line.RBT_1737038 phases=2 bus1=BT379971.2.4 bus2=UC1737038.2.4 linecode=105_2 length=0.017 units=km
New Line.RBT_1737924 phases=2 bus1=BT183421.3.4 bus2=UC1737924.3.4 linecode=105_2 length=0.005 units=km
New Line.RBT_1736704 phases=2 bus1=BT183421.3.4 bus2=UC1736704.3.4 linecode=105_2 length=0.012 units=km
New Line.RBT_1736916 phases=4 bus1=BT632321.1.2.3.4 bus2=UC1736916.1.2.3.4 linecode=51_4 length=0.02 units=km
New Line.RBT_1704844 phases=2 bus1=BT655251.1.4 bus2=UC1704844.1.4 linecode=50_2 length=0.016 units=km
New Line.RBT_1728738 phases=2 bus1=ET17_3880.1.4 bus2=UC1728738.1.4 linecode=50_2 length=0.01469 units=km
New Line.RBT_1728746 phases=2 bus1=BT581451.2.4 bus2=UC1728746.2.4 linecode=50_2 length=0.006 units=km
New Line.RBT_1721091 phases=2 bus1=BT695681.1.4 bus2=UC1721091.1.4 linecode=50_2 length=0.01513 units=km
New Line.RBT_1704902 phases=3 bus1=ET17_39.1.2.4 bus2=UC1704902.1.2.4 linecode=83_3 length=0.021 units=km
New Line.RBT_1726170 phases=2 bus1=ET17_4037.1.4 bus2=UC1726170.1.4 linecode=50_2 length=0.01003 units=km
New Line.RBT_1730576 phases=2 bus1=BT655501.1.4 bus2=UC1730576.1.4 linecode=50_2 length=0.02783 units=km
New Line.RBT_1720554 phases=2 bus1=BT201711.1.4 bus2=UC1720554.1.4 linecode=108_2 length=0.025 units=km
New Line.RBT_1704839 phases=2 bus1=BT655501.1.4 bus2=UC1704839.1.4 linecode=50_2 length=0.01 units=km
New Line.RBT_1704840 phases=2 bus1=BT655491.2.4 bus2=UC1704840.2.4 linecode=50_2 length=0.025 units=km
New Line.RBT_1736352 phases=2 bus1=BT763641.1.4 bus2=UC1736352.1.4 linecode=50_2 length=0.006 units=km
New Line.RBT_1738879 phases=2 bus1=BT201731.1.4 bus2=UC1738879.1.4 linecode=105_2 length=0.01 units=km
New Line.RBT_1738842 phases=2 bus1=BT201731.1.4 bus2=UC1738842.1.4 linecode=105_2 length=0.03 units=km
New Line.RBT_1734095 phases=2 bus1=BT201711.1.4 bus2=UC1734095.1.4 linecode=50_2 length=0.01562 units=km
New Line.RBT_1734971 phases=2 bus1=BT201711.1.4 bus2=UC1734971.1.4 linecode=50_2 length=0.02021 units=km
New Line.RBT_1735982 phases=2 bus1=BT201711.1.4 bus2=UC1735982.1.4 linecode=108_2 length=0.017 units=km
New Line.RBT_1735988 phases=2 bus1=BT201711.1.4 bus2=UC1735988.1.4 linecode=105_2 length=0.02 units=km
New Line.RBT_1737036 phases=4 bus1=BT771981.1.2.3.4 bus2=UC1737036.1.2.3.4 linecode=123_P_4 length=0.03 units=km
New Line.RBT_1704817 phases=4 bus1=ET17_4128.1.2.3.4 bus2=UC1704817.1.2.3.4 linecode=51_4 length=0.02324 units=km
New Line.RBT_1704818 phases=4 bus1=BT717231.1.2.3.4 bus2=UC1704818.1.2.3.4 linecode=51_4 length=0.01034 units=km
New Line.RBT_1729947 phases=4 bus1=BT771971.1.2.3.4 bus2=UC1729947.1.2.3.4 linecode=51_4 length=0.016 units=km
New Line.RBT_1730121 phases=4 bus1=BT636901.1.2.3.4 bus2=UC1730121.1.2.3.4 linecode=51_4 length=0.03 units=km
New Line.RBT_1722401 phases=3 bus1=BT663641.1.2.4 bus2=UC1722401.1.2.4 linecode=110_3 length=0.01 units=km
New Line.RBT_1709879 phases=2 bus1=BT663581.1.4 bus2=UC1709879.1.4 linecode=50_2 length=0.012 units=km
New Line.RBT_1734516 phases=3 bus1=BT663641.1.2.4 bus2=UC1734516.1.2.4 linecode=83_3 length=0.02146 units=km
New Line.RBT_1704841 phases=3 bus1=BT620051.1.2.4 bus2=UC1704841.1.2.4 linecode=83_3 length=0.028 units=km
New Line.RBT_1704842 phases=2 bus1=BT655341.2.4 bus2=UC1704842.2.4 linecode=108_2 length=0.03 units=km
New Line.RBT_1704706 phases=4 bus1=BT655191.1.2.3.4 bus2=UC1704706.1.2.3.4 linecode=51_4 length=0.029 units=km
New Line.RBT_1731195 phases=4 bus1=BT655191.1.2.3.4 bus2=UC1731195.1.2.3.4 linecode=51_4 length=0.03 units=km
New Line.RBT_1735737 phases=4 bus1=BT760601.1.2.3.4 bus2=UC1735737.1.2.3.4 linecode=51_4 length=0.01 units=km
New Line.RBT_1736066 phases=4 bus1=BT760581.1.2.3.4 bus2=UC1736066.1.2.3.4 linecode=141_4 length=0.008 units=km
New Line.RBT_1735048 phases=2 bus1=BT697741.1.4 bus2=UC1735048.1.4 linecode=50_2 length=0.02963 units=km
New Line.RBT_1732377 phases=2 bus1=ET17_4479.1.4 bus2=UC1732377.1.4 linecode=50_2 length=0.01849 units=km
New Line.RBT_1734092 phases=2 bus1=BT244281.2.4 bus2=UC1734092.2.4 linecode=50_2 length=0.01478 units=km
New Line.RBT_1704808 phases=2 bus1=BT244271.2.4 bus2=UC1704808.2.4 linecode=108_2 length=0.03 units=km
New Line.RBT_1704809 phases=2 bus1=BT244281.2.4 bus2=UC1704809.2.4 linecode=50_2 length=0.01438 units=km
New Line.RBT_1704826 phases=2 bus1=ET17_4833.2.4 bus2=UC1704826.2.4 linecode=108_2 length=0.01634 units=km
New Line.RBT_1728308 phases=2 bus1=ET17_4833.2.4 bus2=UC1728308.2.4 linecode=50_2 length=0.0258 units=km
New Line.RBT_1704812 phases=2 bus1=ET17_5149.1.4 bus2=UC1704812.1.4 linecode=50_2 length=0.0217 units=km
New Line.RBT_1704813 phases=2 bus1=BT663682.1.4 bus2=UC1704813.1.4 linecode=50_2 length=0.025 units=km
New Line.RBT_1734098 phases=2 bus1=BT681131.1.4 bus2=UC1734098.1.4 linecode=50_2 length=0.02229 units=km
New Line.RBT_1733982 phases=2 bus1=ET17_5289.2.4 bus2=UC1733982.2.4 linecode=105_2 length=0.005 units=km
New Line.RBT_1728484 phases=2 bus1=BT651411.1.4 bus2=UC1728484.1.4 linecode=50_2 length=0.026 units=km
New Line.RBT_1733784 phases=2 bus1=ET17_5301.2.4 bus2=UC1733784.2.4 linecode=50_2 length=0.02468 units=km
New Line.RBT_1734093 phases=4 bus1=ET17_5334.1.2.3.4 bus2=UC1734093.1.2.3.4 linecode=51_4 length=0.01017 units=km
New Line.RBT_1705111 phases=4 bus1=BT283741.1.2.3.4 bus2=UC1705111.1.2.3.4 linecode=109_4 length=0.02466 units=km
New Line.RBT_1704859 phases=2 bus1=BT300761.1.4 bus2=UC1704859.1.4 linecode=50_2 length=0.007 units=km
New Line.RBT_1704860 phases=2 bus1=BT300801.2.4 bus2=UC1704860.2.4 linecode=108_2 length=0.016 units=km
New Line.RBT_1704861 phases=2 bus1=BT300791.1.4 bus2=UC1704861.1.4 linecode=50_2 length=0.021 units=km
New Line.RBT_1734880 phases=4 bus1=ET17_5460.1.2.3.4 bus2=UC1734880.1.2.3.4 linecode=51_4 length=0.016 units=km
New Line.RBT_1735435 phases=4 bus1=ET17_5587.1.2.3.4 bus2=UC1735435.1.2.3.4 linecode=51_4 length=0.01469 units=km
New Line.RBT_1736682 phases=4 bus1=ET17_5587.1.2.3.4 bus2=UC1736682.1.2.3.4 linecode=51_4 length=0.03 units=km
New Line.RBT_1736729 phases=4 bus1=BT750301.1.2.3.4 bus2=UC1736729.1.2.3.4 linecode=51_4 length=0.02 units=km
New Line.RBT_1736189 phases=4 bus1=BT750311.1.2.3.4 bus2=UC1736189.1.2.3.4 linecode=109_4 length=0.028 units=km
New Line.RBT_1731244 phases=2 bus1=BT750321.1.4 bus2=UC1731244.1.4 linecode=50_2 length=0.019 units=km
New Line.RBT_1729695 phases=2 bus1=BT750321.1.4 bus2=UC1729695.1.4 linecode=50_2 length=0.03 units=km
New Line.RBT_1736064 phases=2 bus1=ET17_5645.1.4 bus2=UC1736064.1.4 linecode=108_2 length=0.01 units=km
New Line.RBT_1735989 phases=2 bus1=ET17_5777.1.4 bus2=UC1735989.1.4 linecode=105_2 length=0.03 units=km
New Line.RBT_1736021 phases=4 bus1=ET17_5865.1.2.3.4 bus2=UC1736021.1.2.3.4 linecode=51_4 length=0.027 units=km
New Line.RBT_1736541 phases=4 bus1=BT769051.1.2.3.4 bus2=UC1736541.1.2.3.4 linecode=51_4 length=0.007 units=km
...
